16
Coordinates from ORCA-job /home/jmgv/scratch/ORCAjob__1527.lear-kJlQ/MoSn14_Ca
  Mo  -0.16591363911541     -0.00008367741268     -0.00614590632503
  Sn  2.12255504372772     -1.46994477243968     -1.49505627885639
  Sn  -3.03747505946131     -0.00231298809671      1.48365332125714
  Sn  -0.71321389564585      1.74168986903008      2.40795257529597
  Sn  -0.71192755746256     -1.74641616468742      2.40482975639285
  Sn  2.08866168432333      1.47099820320724      1.53887011725547
  Sn  -2.36000246507545     -2.45730154620333     -0.02760540673188
  Sn  -2.36200694069227      2.45571432940030     -0.02356056599029
  Sn  -0.65142536780662     -1.75896241523888     -2.41990370147585
  Sn  2.08989683299331     -1.47279745825166      1.53653655081125
  Sn  2.12261388315706      1.47610226589022     -1.49226603468508
  Sn  0.38308198675730      3.35014838771455      0.01507414543228
  Sn  0.38582151297089     -3.34987255472376      0.00879751578092
  Sn  -0.65220479424719      1.76160066145857     -2.41644592394127
  Sn  -2.98739221342001      0.00022919216012     -1.56616899916048
  Ca  4.44892898899707      0.00120866819302      0.05143983494039
