16

  Mo    -0.190439   -0.000789   -0.034066
  Sn     2.077487   -1.473544   -1.456221
  Sn     4.351418    0.006542   -0.161969
  Sn    -3.089512   -0.002882    1.422910
  Sn    -0.739137    1.633460    2.408968
  Sn    -0.740024   -1.642007    2.406859
  Sn     2.165716    1.437526    1.557659
  Sn    -2.375570   -2.467671   -0.022078
  Sn    -2.375642    2.466015   -0.017322
  Sn    -0.625431   -1.903567   -2.403708
  Sn     2.163804   -1.435273    1.553125
  Sn     2.067283    1.465226   -1.452132
  Sn     0.386312    3.352115    0.138415
  Sn     0.387488   -3.351686    0.133728
  Sn    -0.629545    1.914962   -2.402926
  Sn    -2.834208    0.001574   -1.671243
