7

Cu -0.001101033 0.000000006 -1.243736143
Cu -0.001101018 -0.000000009 1.243736071
B -1.698936260 0.781788648 0.000000033
B -1.698936287 -0.781788686 0.000000029
B 1.151336540 1.369276377 0.000000021
B -0.410264985 1.700492298 -0.000000038
B -0.410265014 -1.700492304 -0.000000018
B 1.151336499 -1.369276342 0.000000014
B 1.917931560 0.000000011 0.000000032
