12

Cu 3.472039492 -0.506248544 -0.023532735
Cu -3.472039493 0.506248567 -0.023532729
B 1.026043423 1.858145812 0.082862560
B -1.026043426 -1.858145823 0.082862569
B -0.466665001 2.353750892 0.157080405
B 1.752491977 -1.365221830 0.097596158
B 0.235699216 -0.791444616 -0.173284298
B -0.235699216 0.791444607 -0.173284294
B 1.522737741 0.335539423 -0.030820896
B -1.752491974 1.365221836 0.097596144
B 0.466665008 -2.353750899 0.157080394
B -1.522737748 -0.335539425 -0.030820905
