12

B 2.28720 0.80222 -0.17443
B 2.30474 -0.74999 -0.17434
B -2.01664 -0.02301 -0.03934
B -1.80191 -1.62096 -0.17495
B -1.83837 1.57945 -0.17490
B 1.02833 -1.73474 -0.04003
B 0.98852 1.75757 -0.04013
B 0.97096 0.01120 0.38896
B -0.47637 -0.84662 0.38999
B -0.49547 0.83568 0.39030
B -0.50258 2.37045 -0.17561
B -0.44841 -2.38124 -0.17552
