14

B -3.20525 0.75715 -0.05652
B 1.81831 0.00008 -0.12223
B -0.50146 1.59161 0.05700
B 0.17949 -0.00003 0.06493
B 2.71090 1.37345 0.01568
B 3.45870 0.00033 -0.03357
B -1.55663 0.00026 -0.04222
B 1.08562 -1.50972 0.01226
B -2.03988 -1.75085 0.03818
B -0.50091 -1.59228 0.05698
B 2.71126 -1.37295 0.01568
B 1.08517 1.50954 0.01218
B -2.04046 1.75089 0.03823
B -3.20485 -0.75748 -0.05656
