12

Y 1.07547 0.01382 -0.00000
B -0.67442 -1.73377 0.00000
B -0.33963 2.00053 -0.00000
B -0.40043 -0.08083 2.25288
B -0.40043 -1.47026 -1.58883
B -1.40970 -0.38646 0.84101
B -0.64479 1.24442 -1.41025
B -1.66387 1.01167 0.00000
B -0.40043 -0.08083 -2.25288
B -0.40043 -1.47026 1.58883
B -1.40970 -0.38646 -0.84101
B -0.64479 1.24442 1.41025
