13

Ru -0.37974082720178 -0.00059813945149 0.13091551813470
Ag 1.91935481021943 0.00312050816090 -1.45317957482158
Ag -2.52989812804276 -1.45151399260617 -0.66626331714821
Ag -0.73399924036095 -2.18185419689628 1.65044133969202
Ag -0.73996497004078 2.18347215192127 1.65012771576737
Ag 1.88051819257098 1.39551476564982 1.04092540271182
Ag -2.53731075712546 1.44014086349819 -0.67026035375500
Ag 0.18850244608937 2.33494804985495 -1.10980724039180
Ag -0.80245853224604 0.00131538509532 -2.53692522529173
Ag 4.19480580195000 0.00483406375305 0.22802473162893
Ag -2.54411757470371 -0.00092505721719 1.80905861088750
Ag 1.88757100162926 -1.39631188750998 1.03965922847388
Ag 0.19673786666941 -2.33214249702292 -1.11271670177743
