14

Ru -0.38375549377367 -0.00057256199158 -0.01195527716185
Ag -2.58307261062992 -1.49950145939608 0.68152777937391
Ag 0.33504526031473 0.13826731959072 -2.64863366155931
Ag -0.70943481747070 2.39080756448262 -1.28883055668488
Ag 1.82141040697407 -0.06913780477859 1.69315434383481
Ag -2.58042983149236 1.43961523995568 0.80808844516393
Ag -0.69244262004484 -2.27116785217753 -1.51132298675923
Ag -0.95121529291818 -0.14080082011045 2.63942793278960
Ag 1.94037920016132 -1.42912491921572 -0.82119061349384
Ag 0.09200460647138 -2.38681022350648 1.26109232686273
Ag -2.47770804981654 0.06905002695840 -1.73427323281328
Ag 1.93855594901540 1.49163225538479 -0.69818279712003
Ag 4.17418493847434 0.00201968275566 0.14785516154551
Ag 0.07647809396465 2.26572353580864 1.48324314067854
