11

Ru -0.00123728803894 -0.00267572476909 0.11662090065110
Ag 1.54364178616348 0.72450048568946 -1.92723677011517
Ag 2.22795237313751 1.07746775915740 1.07905408782212
Ag -2.03277038983008 1.37959664664048 1.12469178409307
Ag 2.18946687057784 -1.52129117855653 -0.16863799322840
Ag 0.18180254879842 2.65194384293026 -0.20773622226054
Ag -0.13376284837218 -1.73647638475157 -1.90174082612395
Ag -1.43502848371602 0.93858371826716 -1.92127146054294
Ag 0.03259505970948 0.07841316301189 2.75224902449791
Ag -0.17733882500801 -2.41279440220843 1.21210467423732
Ag -2.39532108072281 -1.17726783577122 -0.15809719903051
