15

Pt -1.94676241973727 -1.08473600356136 -2.73219823413963
Pt -1.77527186162463 0.60149514083752 -0.78780213927935
Pt -1.78484115492614 3.03297250764613 0.04996484917108
Pt -2.08877099732672 -1.84781816690541 -0.27924451294792
Pt -1.94763197798445 1.04114385161928 1.68506608882830
Pt -2.17584394251370 -1.44134954316053 2.25427319981957
Pt 0.58992626344741 -1.31465305245053 -2.61402351274041
Pt 0.70455973210382 0.92636817176937 -1.44282327197879
Pt 0.75308265286269 2.90783806827140 0.10061346478192
Pt 0.42405776489696 -1.66178687546090 -0.12760066660140
Pt 0.54836821642515 0.76174653807422 1.44611596596983
Pt 0.37475385023617 -1.55512192191056 2.41237742198179
Pt 2.83105605103661 -0.62775360962144 -1.47444685635731
Pt 2.86246996620201 1.41238790845654 0.33431762365143
Pt 2.63084685690208 -1.15073301360372 1.17541157984091
