16

Pt -2.19007104789273 -2.46020952030192 -1.89726072151274
Pt -2.08300429354584 0.03676121030920 -1.24607959181531
Pt -1.95611437277677 2.56980504694640 -1.74440273429894
Pt -2.42993570467605 -1.73741396240237 0.54805381273326
Pt -2.23042567542561 1.69426061145161 0.66305379509066
Pt -2.65155860816597 -0.07220857614812 2.45856256896741
Pt 0.38063086403603 -2.62118331716828 -1.50303709729825
Pt 0.48664938751694 -0.06554194445977 -1.60048379372071
Pt 0.57536548381291 2.45464592913171 -1.42368894234646
Pt 0.10137552006882 -1.61142030356910 0.78042578948666
Pt 0.26174231673160 1.38706330920154 0.87819640250305
Pt -0.08837066563982 -0.16977474329662 2.85428007322457
Pt 2.49723121435097 -1.35366474007832 -0.65573260865228
Pt 2.67015548919352 1.95618261200190 -0.07380004767295
Pt 2.24842539957492 -0.15329517977366 1.74516551493259
Pt 4.40790469303711 0.14599356815579 0.21674758017945
