18

Pt -1.76766 -3.11134 0.00202
Pt -2.14501 -1.00983 1.37010
Pt -2.53075 1.21081 2.53369
Pt 0.70787 -2.65665 -0.01657
Pt 3.18621 -2.20609 -0.03532
Pt 0.34414 -0.59655 1.42191
Pt -0.05425 1.66146 2.51454
Pt 2.42407 2.11456 2.49751
Pt 2.81904 -0.10400 1.33316
Pt 2.79805 -0.10722 -1.40302
Pt -2.16573 -1.01384 -1.36640
Pt -2.57323 1.32065 0.00157
Pt -2.56814 1.20348 -2.53044
Pt 0.32224 -0.60006 -1.45448
Pt -0.10650 1.85331 -0.01661
Pt 2.39119 2.22647 -0.03503
Pt -0.09176 1.65471 -2.54726
Pt 2.38611 2.10788 -2.56665
