18

Pt -1.89049 -3.07747 0.00105
Pt -2.13936 -1.23913 1.75711
Pt -2.51678 1.19519 2.48944
Pt 0.61716 -2.77635 -0.01068
Pt 3.10307 -2.37780 -0.02281
Pt 0.31618 -0.73065 1.47274
Pt -0.01677 1.52080 2.56838
Pt 2.46285 1.96171 2.54090
Pt 2.77043 -0.25598 1.34821
Pt 2.75727 -0.24940 -1.38012
Pt -2.15511 -1.23304 -1.74601
Pt -2.39355 0.53184 0.00988
Pt -2.53973 1.20402 -2.46609
Pt 0.30236 -0.72466 -1.48273
Pt -0.05384 1.67685 0.00172
Pt 2.44547 2.13599 -0.00826
Pt -0.04123 1.53132 -2.56576
Pt 2.43747 1.97437 -2.55827
