15

Pt -1.96200335395462 -1.20713663262998 -2.66138800582303
Pt -1.85671412026740 0.94795848122465 -1.29993620547597
Pt -1.82166799806916 3.02901413129850 0.16875951860604
Pt -2.03701919104700 -1.56642846744706 -0.13285766029248
Pt -1.99403270929692 0.82451878106190 1.47580198492387
Pt -2.07139525976386 -1.55394159353728 2.42500760983462
Pt 0.56643291418984 -1.32417507488435 -2.58559958880617
Pt 0.66862322121160 0.94767826922362 -1.46489707601335
Pt 0.72375130823661 2.89454666095117 0.13223642493761
Pt 0.45659359575909 -1.56709837705701 -0.09065733425622
Pt 0.49769512116928 0.72212831321755 1.40718802526883
Pt 0.47089729810347 -1.57053003370365 2.45056130570717
Pt 2.80008300181510 -0.65514264074895 -1.43818675919321
Pt 2.82741907263677 1.32422998039000 0.39918414605834
Pt 2.73133609927721 -1.24562179735909 1.21478461452395
