16

Pt -2.94691437649493 -0.02126861436433 -1.36230067242425
Pt 1.61455907326112 -1.44061831808738 -2.70929453381246
Pt 1.47579206698029 -1.41917819821645 2.43170320366704
Pt -0.48594060866457 1.12175776713598 -1.39486053757228
Pt 2.51199143597421 0.69048046647814 1.36381936002993
Pt 2.44263193443281 2.84192008935210 -0.03654264653053
Pt 2.01382904539281 0.76266151504195 -1.48862304506710
Pt -0.89135415870206 -1.01063872670618 -2.67282412801297
Pt -1.25074468060417 -1.55810265329453 2.37076001883812
Pt 0.27669733802017 -3.41953772686072 0.96004588065947
Pt -0.00165338550138 0.66512490800281 1.54670302613498
Pt -0.06316126324392 2.90458401371368 0.33156947913135
Pt -2.51174390588872 2.49823030635441 -0.28731512992173
Pt -2.52926872856945 0.43147615097174 1.30175301884008
Pt -1.16401662424678 -1.58278765254186 -0.19968497282214
Pt 1.50929683775461 -1.46410332717941 -0.15490832113752
