16

Pt 2.40987208266111 -1.97559492594514 -2.13877092071682
Pt 2.25740966391010 -1.64674528351881 0.37443127090371
Pt 2.14792849253343 -0.85889377283214 2.80586250660743
Pt 2.26848918577175 0.47755219990839 -1.54404857294710
Pt 2.20608298754611 1.05675620825423 1.12337643476817
Pt 2.23830184038499 2.86552922648455 -0.69106203861214
Pt -0.20393046270393 -1.98763561531273 -2.22309054340737
Pt -0.25995498223341 -1.61797808768486 0.26423841427745
Pt -0.39082174404952 -0.83995303447344 2.70315724682470
Pt -0.28267730012269 0.49064727596044 -1.65932706433640
Pt -0.31388986239117 1.12021168343777 1.09465508394156
Pt -0.32269051064674 2.85767445192787 -0.79767442818181
Pt -2.42481915286648 -0.96922364801071 -1.28269746292602
Pt -2.58079021091854 -1.25433555274334 1.44702904242465
Pt -2.51424709410976 2.06120587958832 0.29411933776093
Pt -4.23426293286526 0.22078299495959 0.22980169371905
