19

Pt 2.95168 -1.11870 -2.53465
Pt 2.64471 1.12563 -1.36725
Pt 2.34907 3.24289 0.00184
Pt 0.46271 -1.49714 -2.53564
Pt -2.01939 -1.89552 -2.55093
Pt 0.12332 0.79830 -1.45900
Pt -0.16888 2.83869 0.00237
Pt -2.67419 2.45829 0.00294
Pt -2.36386 0.37804 -1.50702
Pt -2.06012 -1.78903 -0.00056
Pt 2.95097 -1.24136 -0.00216
Pt 2.64578 1.12330 1.36709
Pt 2.95368 -1.12290 2.53040
Pt 0.46332 -1.61794 -0.00143
Pt 0.12446 0.79590 1.46017
Pt -2.36273 0.37566 1.50941
Pt 0.46468 -1.50114 2.53283
Pt -2.01746 -1.89938 2.54950
Pt -4.46775 0.54640 0.00209
