19

Pt -2.74171 2.72957 1.06713
Pt -2.74344 1.23626 -0.99076
Pt -2.73859 -0.44083 -2.90068
Pt -0.21698 2.72870 1.06435
Pt 2.29401 2.71891 1.05894
Pt -0.21643 1.27889 -1.02377
Pt -0.21431 -0.44151 -2.89449
Pt 2.29639 -0.44018 -2.87880
Pt 2.26576 1.42743 -1.14098
Pt 2.26736 0.27930 1.80827
Pt -2.74266 0.23652 1.56654
Pt -2.74172 -1.47729 -0.57851
Pt -2.73762 -2.29161 1.83062
Pt -0.21536 0.24785 1.62032
Pt -0.21481 -1.52716 -0.59622
Pt 2.26696 -1.70629 -0.66475
Pt -0.21299 -2.28473 1.83009
Pt 2.29746 -2.27163 1.82286
Pt 4.04867 -0.00219 -0.00018
