20

Pt -2.44089 -0.69974 0.02783
Pt -1.66795 -3.11465 0.28871
Pt -2.63990 1.81459 0.34625
Pt -0.16959 2.35053 -0.04423
Pt 0.01690 -0.23786 0.00378
Pt 0.32643 -2.17098 1.64851
Pt 1.44743 2.49957 1.97847
Pt 1.97032 -0.28885 2.46849
Pt -0.35251 0.71653 2.43854
Pt -2.82451 1.21967 2.80462
Pt -2.04000 -1.24888 2.48227
Pt 2.51661 -0.34371 -0.00929
Pt 2.09791 -2.85436 -0.17584
Pt 2.35327 2.15953 -0.41930
Pt -0.00611 -2.25563 -1.56475
Pt -1.78590 2.18892 -2.06623
Pt -1.90198 -0.66358 -2.45142
Pt 0.25228 0.66568 -2.46627
Pt 2.62817 1.50524 -2.85299
Pt 2.20526 -1.03673 -2.44102
