10

Cu 0.790655049 -0.182237614 -1.206255458
Cu 0.790655049 -0.182237618 1.206255463
B -0.741705497 1.325559453 1.412343492
B -1.304844914 -0.106458326 -1.757691277
B -1.304844909 -0.106458332 1.757691279
B -0.455800971 1.933379498 -0.000000003
B -1.666623930 -1.270508316 0.778148115
B -0.741705501 1.325559452 -1.412343496
B -1.156273627 0.253135255 0.000000001
B -1.666623920 -1.270508315 -0.778148115
