16

Cu 1.690655823 -0.712403272 0.000000001
Cu -3.235604093 -0.093399098 0.000000021
B 1.905033900 0.464291318 1.804599815
B 0.749641289 -0.572465382 2.059764038
B -0.517005604 -0.931049731 -1.176323475
B 0.221221792 0.744847259 1.154807208
B -1.171337987 0.506306999 -0.000000007
B -0.517005608 -0.931049731 1.176323468
B -0.247562601 1.855028568 -0.000000004
B 1.343819797 1.668266267 -0.000000001
B 2.908094913 1.173393104 -0.768584464
B 0.749641291 -0.572465382 -2.059764036
B -1.627752842 -1.181449523 -0.000000011
B 2.908094908 1.173393105 0.768584467
B 0.221221796 0.744847256 -1.154807212
B 1.905033900 0.464291318 -1.804599806
